<?xml version="1.0" encoding="UTF-8"?>
<routes xmlns:xsi="http://www.w3.org/2001/XMLSchema-instance" xsi:noNamespaceSchemaLocation="http://sumo.sf.net/xsd/routes_file.xsd">
  <vType accel="1.0" decel="5.0" id="Car" length="2.0" minGap="2.0" maxSpeed="70.0" sigma="0" />

  
  <route id="route0_0" edges="agent1est1 agent2est1 agent2ouest2" />
  <route id="route0_01" edges="agent1est1 agent4north1 agent3est1 agent3south2" />
  <route id="route0_1" edges="agent1north1 agent4north1 agent4south2 " />
  <route id="route0_11" edges="agent1north1 agent2est1 agent3north1 agent3ouest2" />
  
  
  <route id="route1_0" edges=" agent2ouest1 agent1ouest1 agent1est2  " />
  <route id="route1_01" edges=" agent2ouest1 agent3north1 agent4ouest1 agent4south2  " />
  <route id="route1_1" edges=" agent2north1 agent3north1 agent3south2 " />
  <route id="route1_11" edges=" agent2north1 agent1ouest1 agent4north1 agent4est2 " />
  
  <route id="route2_0" edges=" agent4est1 agent3est1 agent3ouest2" />
  <route id="route2_01" edges=" agent4est1 agent1south1 agent2est1 agent2north2" />
  <route id="route2_1" edges=" agent4south1 agent1south1 agent1north2  " />
  <route id="route2_11" edges=" agent4south1 agent3est1 agent2south1 agent2ouest2  " />
  
  <route id="route3_0" edges=" agent3ouest1 agent4ouest1 agent4est2 " />
  <route id="route3_01" edges=" agent3ouest1 agent2south1 agent1ouest1 agent1north2 " />
  <route id="route3_1" edges=" agent3south1 agent2south1 agent2north2 " />
  <route id="route3_11" edges=" agent3south1 agent4ouest1 agent1south1 agent1est2 " />
  
  
  
  
	
	
	<flow id="type0_0_0" color="1,1,0"    route="route0_0"      begin="0" end= "1200" departLane="free" vehsPerHour="600" type="Car"/>
	<flow id="type0_0_01" color="255,0,0" route="route0_01"  begin="0" end= "1200" departLane="free" vehsPerHour="350" type="Car"/>
	<flow id="type0_1_0" color="1,1,0"    route="route0_1"      begin="0" end= "1200" departLane="free" vehsPerHour="600" type="Car"/>
	<flow id="type0_1_01" color="255,0,0" route="route0_11"  begin="0" end= "1200" departLane="free" vehsPerHour="350" type="Car"/>
	<flow id="type1_0_0" color="1,1,0"    route="route1_0"      begin="0" end= "1200" departLane="free" vehsPerHour="600" type="Car"/>
	<flow id="type1_0_01" color="255,0,0" route="route1_01"  begin="0" end= "1200" departLane="free" vehsPerHour="350" type="Car"/>
	<flow id="type1_1_0" color="1,1,0"    route="route1_1"      begin="0" end= "1200" departLane="free" vehsPerHour="600" type="Car"/>
	<flow id="type1_1_01" color="255,0,0" route="route1_11"  begin="0" end= "1200" departLane="free" vehsPerHour="350" type="Car"/>
	<flow id="type2_0_0" color="1,1,0"    route="route2_0"      begin="0" end= "1200" departLane="free" vehsPerHour="600" type="Car"/>
	<flow id="type2_0_01" color="255,0,0" route="route2_01"  begin="0" end= "1200" departLane="free" vehsPerHour="350" type="Car"/>
	<flow id="type2_1_0" color="1,1,0"    route="route2_1"      begin="0" end= "1200" departLane="free" vehsPerHour="605" type="Car"/>
	<flow id="type2_1_01" color="255,0,0" route="route2_11"  begin="0" end= "1200" departLane="free" vehsPerHour="350" type="Car"/>
	<flow id="type3_0_0" color="1,1,0"    route="route3_0"      begin="0" end= "1200" departLane="free" vehsPerHour="600" type="Car"/>
	<flow id="type3_0_01" color="255,0,0" route="route3_01"  begin="0" end= "1200" departLane="free" vehsPerHour="350" type="Car"/>
	<flow id="type3_1_0" color="1,1,0"    route="route3_1"      begin="0" end= "1200" departLane="free" vehsPerHour="605" type="Car"/>
	<flow id="type3_1_01" color="255,0,0" route="route3_11"  begin="0" end= "1200" departLane="free" vehsPerHour="350" type="Car"/>
	
	
	<flow id="type0_0_2" color="1,1,0"    route="route0_0"      begin="1300" end= "2600" departLane="free" vehsPerHour="600" type="Car"/>
	<flow id="type0_1_2" color="1,1,0"    route="route0_1"      begin="1300" end= "2600" departLane="free" vehsPerHour="620" type="Car"/>
	<flow id="type1_0_2" color="1,1,0"    route="route1_0"      begin="1300" end= "2600" departLane="free" vehsPerHour="1100" type="Car"/>
	<flow id="type1_1_2" color="1,1,0"    route="route1_1"      begin="1300" end= "2600" departLane="free" vehsPerHour="1170" type="Car"/>
	<flow id="type2_0_2" color="1,1,0"    route="route2_0"      begin="1300" end= "2600" departLane="free" vehsPerHour="650" type="Car"/>
	<flow id="type2_1_2" color="1,1,0"    route="route2_1"      begin="1300" end= "2600" departLane="free" vehsPerHour="660" type="Car"/>
	<flow id="type3_0_2" color="1,1,0"    route="route3_0"      begin="1300" end= "2600" departLane="free" vehsPerHour="1170" type="Car"/>
	<flow id="type3_1_2" color="1,1,0"    route="route3_1"      begin="1300" end= "2600" departLane="free" vehsPerHour="1150" type="Car"/>
	
	<flow id="type0_0_3" color="1,1,0"    route="route0_0"      begin="2800" end= "4000" departLane="free" vehsPerHour="1100" type="Car"/>
	<flow id="type0_1_3" color="1,1,0"    route="route0_1"      begin="2800" end= "4000" departLane="free" vehsPerHour="1170" type="Car"/>
	<flow id="type1_0_3" color="1,1,0"    route="route1_0"      begin="2800" end= "4000" departLane="free" vehsPerHour="600" type="Car"/>
	<flow id="type1_1_3" color="1,1,0"    route="route1_1"      begin="2800" end= "4000" departLane="free" vehsPerHour="620" type="Car"/>
	<flow id="type2_0_3" color="1,1,0"    route="route2_0"      begin="2800" end= "4000" departLane="free" vehsPerHour="1170" type="Car"/>
	<flow id="type2_1_3" color="1,1,0"    route="route2_1"      begin="2800" end= "4000" departLane="free" vehsPerHour="1150" type="Car"/>
	<flow id="type3_0_3" color="1,1,0"    route="route3_0"      begin="2800" end= "4000" departLane="free" vehsPerHour="650" type="Car"/>
	<flow id="type3_1_3" color="1,1,0"    route="route3_1"      begin="2800" end= "4000" departLane="free" vehsPerHour="660" type="Car"/>
	
	<flow id="type0_0_4" color="1,1,0"    route="route0_0"      begin="4200" end= "5500" departLane="free" vehsPerHour="500" type="Car"/>
	<flow id="type0_0_41" color="255,0,0" route="route0_01"  begin="4200" end= "5500" departLane="free" vehsPerHour="350" type="Car"/>
	<flow id="type0_1_4" color="1,1,0"    route="route0_1"      begin="4200" end= "5500" departLane="free" vehsPerHour="500" type="Car"/>
	<flow id="type0_1_41" color="255,0,0" route="route0_11"  begin="4200" end= "5500" departLane="free" vehsPerHour="350" type="Car"/>
	<flow id="type1_0_4" color="1,1,0"    route="route1_0"      begin="4200" end= "5500" departLane="free" vehsPerHour="500" type="Car"/>
	<flow id="type1_0_41" color="255,0,0" route="route1_01"  begin="4200" end= "5500" departLane="free" vehsPerHour="350" type="Car"/>
	<flow id="type1_1_4" color="1,1,0"    route="route1_1"      begin="4200" end= "5500" departLane="free" vehsPerHour="500" type="Car"/>
	<flow id="type1_1_41" color="255,0,0" route="route1_11"  begin="4200" end= "5500" departLane="free" vehsPerHour="350" type="Car"/>
	<flow id="type2_0_4" color="1,1,0"    route="route2_0"      begin="4200" end= "5500" departLane="free" vehsPerHour="500" type="Car"/>
	<flow id="type2_0_41" color="255,0,0" route="route2_01"  begin="4200" end= "5500" departLane="free" vehsPerHour="350" type="Car"/>
	<flow id="type2_1_4" color="1,1,0"    route="route2_1"      begin="4200" end= "5500" departLane="free" vehsPerHour="505" type="Car"/>
	<flow id="type2_1_41" color="255,0,0" route="route2_11"  begin="4200" end= "5500" departLane="free" vehsPerHour="350" type="Car"/>
	<flow id="type3_0_4" color="1,1,0"    route="route3_0"      begin="4200" end= "5500" departLane="free" vehsPerHour="500" type="Car"/>
	<flow id="type3_0_41" color="255,0,0" route="route3_01"  begin="4200" end= "5500" departLane="free" vehsPerHour="350" type="Car"/>
	<flow id="type3_1_4" color="1,1,0"    route="route3_1"      begin="4200" end= "5500" departLane="free" vehsPerHour="505" type="Car"/>
	<flow id="type3_1_41" color="255,0,0" route="route3_11"  begin="4200" end= "5500" departLane="free" vehsPerHour="350" type="Car"/>
	
	<flow id="type0_0_5" color="1,1,0"    route="route0_0"      begin="5700" end="7000" departLane="free" vehsPerHour="1100" type="Car"/>
	<flow id="type0_1_5" color="1,1,0"    route="route0_1"      begin="5700" end="7000" departLane="free" vehsPerHour="620" type="Car"/>
	<flow id="type1_0_5" color="1,1,0"    route="route1_0"      begin="5700" end="7000" departLane="free" vehsPerHour="1100" type="Car"/>
	<flow id="type1_1_5" color="1,1,0"    route="route1_1"      begin="5700" end="7000" departLane="free" vehsPerHour="640" type="Car"/>
	<flow id="type2_0_5" color="1,1,0"    route="route2_0"      begin="5700" end="7000" departLane="free" vehsPerHour="1150" type="Car"/>
	<flow id="type2_1_5" color="1,1,0"    route="route2_1"      begin="5700" end="7000" departLane="free" vehsPerHour="660" type="Car"/>
	<flow id="type3_0_5" color="1,1,0"    route="route3_0"      begin="5700" end="7000" departLane="free" vehsPerHour="1170" type="Car"/>
	<flow id="type3_1_5" color="1,1,0"    route="route3_1"      begin="5700" end="7000" departLane="free" vehsPerHour="650" type="Car"/>
	
	<flow id="type0_0_6" color="1,1,0"    route="route0_0"      begin="7200" end= "8500" departLane="free" vehsPerHour="600" type="Car"/>
	<flow id="type0_1_6" color="1,1,0"    route="route0_1"      begin="7200" end= "8500" departLane="free" vehsPerHour="1170" type="Car"/>
	<flow id="type1_0_6" color="1,1,0"    route="route1_0"      begin="7200" end= "8500" departLane="free" vehsPerHour="600" type="Car"/>
	<flow id="type1_1_6" color="1,1,0"    route="route1_1"      begin="7200" end= "8500" departLane="free" vehsPerHour="1120" type="Car"/>
	<flow id="type2_0_6" color="1,1,0"    route="route2_0"      begin="7200" end= "8500" departLane="free" vehsPerHour="670" type="Car"/>
	<flow id="type2_1_6" color="1,1,0"    route="route2_1"      begin="7200" end= "8500" departLane="free" vehsPerHour="1150" type="Car"/>
	<flow id="type3_0_6" color="1,1,0"    route="route3_0"      begin="7200" end= "8500" departLane="free" vehsPerHour="650" type="Car"/>
	<flow id="type3_1_6" color="1,1,0"    route="route3_1"      begin="7200" end= "8500" departLane="free" vehsPerHour="1160" type="Car"/>
	
	<flow id="type0_0_7" color="1,1,0"    route="route0_0"      begin="8700" end= "12000" departLane="free" vehsPerHour="500" type="Car"/>
	<flow id="type0_0_71" color="255,0,0" route="route0_01"  begin="8700" end= "12000" departLane="free" vehsPerHour="350" type="Car"/>
	<flow id="type0_1_7" color="1,1,0"    route="route0_1"      begin="8700" end= "12000" departLane="free" vehsPerHour="500" type="Car"/>
	<flow id="type0_1_71" color="255,0,0" route="route0_11"  begin="8700" end= "12000" departLane="free" vehsPerHour="350" type="Car"/>
	<flow id="type1_0_7" color="1,1,0"    route="route1_0"      begin="8700" end= "12000" departLane="free" vehsPerHour="500" type="Car"/>
	<flow id="type1_0_71" color="255,0,0" route="route1_01"  begin="8700" end= "12000" departLane="free" vehsPerHour="350" type="Car"/>
	<flow id="type1_1_7" color="1,1,0"    route="route1_1"      begin="8700" end= "12000" departLane="free" vehsPerHour="500" type="Car"/>
	<flow id="type1_1_71" color="255,0,0" route="route1_11"  begin="8700" end= "12000" departLane="free" vehsPerHour="350" type="Car"/>
	<flow id="type2_0_7" color="1,1,0"    route="route2_0"      begin="8700" end= "12000" departLane="free" vehsPerHour="500" type="Car"/>
	<flow id="type2_0_71" color="255,0,0" route="route2_01"  begin="8700" end= "12000" departLane="free" vehsPerHour="350" type="Car"/>
	<flow id="type2_1_7" color="1,1,0"    route="route2_1"      begin="8700" end= "12000" departLane="free" vehsPerHour="505" type="Car"/>
	<flow id="type2_1_71" color="255,0,0" route="route2_11"  begin="8700" end= "12000" departLane="free" vehsPerHour="350" type="Car"/>
	<flow id="type3_0_7" color="1,1,0"    route="route3_0"      begin="8700" end= "12000" departLane="free" vehsPerHour="500" type="Car"/>
	<flow id="type3_0_71" color="255,0,0" route="route3_01"  begin="8700" end= "12000" departLane="free" vehsPerHour="350" type="Car"/>
	<flow id="type3_1_7" color="1,1,0"    route="route3_1"      begin="8700" end= "12000" departLane="free" vehsPerHour="505" type="Car"/>
	<flow id="type3_1_71" color="255,0,0" route="route3_11"  begin="8700" end= "12000" departLane="free" vehsPerHour="350" type="Car"/>
	
	
	<flow id="type0_0_8" color="1,1,0"    route="route0_0"      begin="13000" end= "14000" departLane="free" vehsPerHour="600" type="Car"/>
	<flow id="type0_1_8" color="1,1,0"    route="route0_1"      begin="13000" end= "14000" departLane="free" vehsPerHour="620" type="Car"/>
	<flow id="type1_0_8" color="1,1,0"    route="route1_0"      begin="13000" end= "14000" departLane="free" vehsPerHour="1100" type="Car"/>
	<flow id="type1_1_8" color="1,1,0"    route="route1_1"      begin="13000" end= "14000" departLane="free" vehsPerHour="1170" type="Car"/>
	<flow id="type2_0_8" color="1,1,0"    route="route2_0"      begin="13000" end= "14000" departLane="free" vehsPerHour="650" type="Car"/>
	<flow id="type2_1_8" color="1,1,0"    route="route2_1"      begin="13000" end= "14000" departLane="free" vehsPerHour="660" type="Car"/>
	<flow id="type3_0_8" color="1,1,0"    route="route3_0"      begin="13000" end= "14000" departLane="free" vehsPerHour="1170" type="Car"/>
	<flow id="type3_1_8" color="1,1,0"    route="route3_1"      begin="13000" end= "14000" departLane="free" vehsPerHour="1150" type="Car"/>
	
	<flow id="type0_0_9" color="1,1,0"    route="route0_0"      begin= "14300" end= "16000" departLane="free" vehsPerHour="1100" type="Car"/>
	<flow id="type0_1_9" color="1,1,0"    route="route0_1"      begin= "14300" end= "16000" departLane="free" vehsPerHour="1170" type="Car"/>
	<flow id="type1_0_9" color="1,1,0"    route="route1_0"      begin= "14300" end= "16000" departLane="free" vehsPerHour="600" type="Car"/>
	<flow id="type1_1_9" color="1,1,0"    route="route1_1"      begin= "14300" end= "16000" departLane="free" vehsPerHour="620" type="Car"/>
	<flow id="type2_0_9" color="1,1,0"    route="route2_0"      begin= "14300" end= "16000" departLane="free" vehsPerHour="1170" type="Car"/>
	<flow id="type2_1_9" color="1,1,0"    route="route2_1"      begin= "14300" end= "16000" departLane="free" vehsPerHour="1150" type="Car"/>
	<flow id="type3_0_9" color="1,1,0"    route="route3_0"      begin= "14300" end= "16000" departLane="free" vehsPerHour="650" type="Car"/>
	<flow id="type3_1_9" color="1,1,0"    route="route3_1"      begin= "14300" end= "16000" departLane="free" vehsPerHour="660" type="Car"/>
	
	<flow id="type0_0_10" color="1,1,0"    route="route0_0"      begin= "16300" end= "18000" departLane="free" vehsPerHour="500" type="Car"/>
	<flow id="type0_0_101" color="255,0,0" route="route0_01"  begin= "16300" end= "18000" departLane="free" vehsPerHour="350" type="Car"/>
	<flow id="type0_1_10" color="1,1,0"    route="route0_1"      begin= "16300" end= "18000" departLane="free" vehsPerHour="500" type="Car"/>
	<flow id="type0_1_101" color="255,0,0" route="route0_11"  begin= "16300" end= "18000" departLane="free" vehsPerHour="350" type="Car"/>
	<flow id="type1_0_10" color="1,1,0"    route="route1_0"      begin= "16300" end= "18000" departLane="free" vehsPerHour="500" type="Car"/>
	<flow id="type1_0_101" color="255,0,0" route="route1_01"  begin= "16300" end= "18000" departLane="free" vehsPerHour="350" type="Car"/>
	<flow id="type1_1_10" color="1,1,0"    route="route1_1"      begin= "16300" end= "18000" departLane="free" vehsPerHour="500" type="Car"/>
	<flow id="type1_1_101" color="255,0,0" route="route1_11"  begin= "16300" end= "18000" departLane="free" vehsPerHour="350" type="Car"/>
	<flow id="type2_0_10" color="1,1,0"    route="route2_0"      begin= "16300" end= "18000" departLane="free" vehsPerHour="500" type="Car"/>
	<flow id="type2_0_101" color="255,0,0" route="route2_01"  begin= "16300" end= "18000" departLane="free" vehsPerHour="350" type="Car"/>
	<flow id="type2_1_10" color="1,1,0"    route="route2_1"      begin= "16300" end= "18000" departLane="free" vehsPerHour="505" type="Car"/>
	<flow id="type2_1_101" color="255,0,0" route="route2_11"  begin= "16300" end= "18000" departLane="free" vehsPerHour="350" type="Car"/>
	<flow id="type3_0_10" color="1,1,0"    route="route3_0"      begin= "16300" end= "18000" departLane="free" vehsPerHour="500" type="Car"/>
	<flow id="type3_0_101" color="255,0,0" route="route3_01"  begin= "16300" end= "18000" departLane="free" vehsPerHour="350" type="Car"/>
	<flow id="type3_1_10" color="1,1,0"    route="route3_1"      begin= "16300" end= "18000" departLane="free" vehsPerHour="505" type="Car"/>
	<flow id="type3_1_101" color="255,0,0" route="route3_11"  begin= "16300" end= "18000" departLane="free" vehsPerHour="350" type="Car"/>
	
	<flow id="type0_0_11" color="1,1,0"    route="route0_0"      begin= "18300" end= "20000" departLane="free" vehsPerHour="1100" type="Car"/>
	<flow id="type0_1_11" color="1,1,0"    route="route0_1"      begin= "18300" end= "20000" departLane="free" vehsPerHour="620" type="Car"/>
	<flow id="type1_0_11" color="1,1,0"    route="route1_0"      begin= "18300" end= "20000" departLane="free" vehsPerHour="1100" type="Car"/>
	<flow id="type1_1_11" color="1,1,0"    route="route1_1"      begin= "18300" end= "20000" departLane="free" vehsPerHour="640" type="Car"/>
	<flow id="type2_0_11" color="1,1,0"    route="route2_0"      begin= "18300" end= "20000" departLane="free" vehsPerHour="1150" type="Car"/>
	<flow id="type2_1_11" color="1,1,0"    route="route2_1"      begin= "18300" end= "20000" departLane="free" vehsPerHour="660" type="Car"/>
	<flow id="type3_0_11" color="1,1,0"    route="route3_0"      begin= "18300" end= "20000" departLane="free" vehsPerHour="1170" type="Car"/>
	<flow id="type3_1_11" color="1,1,0"    route="route3_1"      begin= "18300" end= "20000" departLane="free" vehsPerHour="650" type="Car"/>
	
	<flow id="type0_0_12" color="1,1,0"    route="route0_0"     begin= "20300" end= "22000" departLane="free" vehsPerHour="600" type="Car"/>
	<flow id="type0_1_12" color="1,1,0"    route="route0_1"     begin= "20300" end= "22000" departLane="free" vehsPerHour="1170" type="Car"/>
	<flow id="type1_0_12" color="1,1,0"    route="route1_0"     begin= "20300" end= "22000" departLane="free" vehsPerHour="600" type="Car"/>
	<flow id="type1_1_12" color="1,1,0"    route="route1_1"     begin= "20300" end= "22000" departLane="free" vehsPerHour="1120" type="Car"/>
	<flow id="type2_0_12" color="1,1,0"    route="route2_0"     begin= "20300" end= "22000" departLane="free" vehsPerHour="670" type="Car"/>
	<flow id="type2_1_12" color="1,1,0"    route="route2_1"     begin= "20300" end= "22000" departLane="free" vehsPerHour="1150" type="Car"/>
	<flow id="type3_0_12" color="1,1,0"    route="route3_0"     begin= "20300" end= "22000" departLane="free" vehsPerHour="650" type="Car"/>
	<flow id="type3_1_12" color="1,1,0"    route="route3_1"     begin= "20300" end= "22000" departLane="free" vehsPerHour="1160" type="Car"/>
	
	
	<flow id="type0_0_13" color="1,1,0"    route="route0_0"      begin="22000" end= "23200" departLane="free" vehsPerHour="420" type="Car"/>
	<flow id="type0_0_131" color="255,0,0" route="route0_01"  begin="22000" end= "23200" departLane="free" vehsPerHour="350" type="Car"/>
	<flow id="type0_1_13" color="1,1,0"    route="route0_1"      begin="22000" end= "23200" departLane="free" vehsPerHour="410" type="Car"/>
	<flow id="type0_1_131" color="255,0,0" route="route0_11"  begin="22000" end= "23200" departLane="free" vehsPerHour="350" type="Car"/>
	<flow id="type1_0_13" color="1,1,0"    route="route1_0"      begin="22000" end= "23200" departLane="free" vehsPerHour="420" type="Car"/>
	<flow id="type1_0_131" color="255,0,0" route="route1_01"  begin="22000" end= "23200" departLane="free" vehsPerHour="350" type="Car"/>
	<flow id="type1_1_13" color="1,1,0"    route="route1_1"      begin="22000" end= "23200" departLane="free" vehsPerHour="430" type="Car"/>
	<flow id="type1_1_131" color="255,0,0" route="route1_11"  begin="22000" end= "23200" departLane="free" vehsPerHour="350" type="Car"/>
	<flow id="type2_0_13" color="1,1,0"    route="route2_0"      begin="22000" end= "23200" departLane="free" vehsPerHour="420" type="Car"/>
	<flow id="type2_0_131" color="255,0,0" route="route2_01"  begin="22000" end= "23200" departLane="free" vehsPerHour="350" type="Car"/>
	<flow id="type2_1_13" color="1,1,0"    route="route2_1"      begin="22000" end= "23200" departLane="free" vehsPerHour="425" type="Car"/>
	<flow id="type2_1_131" color="255,0,0" route="route2_11"  begin="22000" end= "23200" departLane="free" vehsPerHour="350" type="Car"/>
	<flow id="type3_0_13" color="1,1,0"    route="route3_0"      begin="22000" end= "23200" departLane="free" vehsPerHour="420" type="Car"/>
	<flow id="type3_0_131" color="255,0,0" route="route3_01"  begin="22000" end= "23200" departLane="free" vehsPerHour="350" type="Car"/>
	<flow id="type3_1_13" color="1,1,0"    route="route3_1"      begin="22000" end= "23200" departLane="free" vehsPerHour="415" type="Car"/>
	<flow id="type3_1_131" color="255,0,0" route="route3_11"  begin="22000" end= "23200" departLane="free" vehsPerHour="350" type="Car"/>
	
	
	<flow id="type0_0_14" color="1,1,0"    route="route0_0"      begin="23300" end= "25000" departLane="free" vehsPerHour="600" type="Car"/>
	<flow id="type0_1_14" color="1,1,0"    route="route0_1"      begin="23300" end= "25000" departLane="free" vehsPerHour="620" type="Car"/>
	<flow id="type1_0_14" color="1,1,0"    route="route1_0"      begin="23300" end= "25000" departLane="free" vehsPerHour="1100" type="Car"/>
	<flow id="type1_1_14" color="1,1,0"    route="route1_1"      begin="23300" end= "25000" departLane="free" vehsPerHour="1170" type="Car"/>
	<flow id="type2_0_14" color="1,1,0"    route="route2_0"      begin="23300" end= "25000" departLane="free" vehsPerHour="650" type="Car"/>
	<flow id="type2_1_14" color="1,1,0"    route="route2_1"      begin="23300" end= "25000" departLane="free" vehsPerHour="660" type="Car"/>
	<flow id="type3_0_14" color="1,1,0"    route="route3_0"      begin="23300" end= "25000" departLane="free" vehsPerHour="1170" type="Car"/>
	<flow id="type3_1_14" color="1,1,0"    route="route3_1"      begin="23300" end= "25000" departLane="free" vehsPerHour="1150" type="Car"/>
	
	<flow id="type0_0_15" color="1,1,0"    route="route0_0"      begin="25200" end= "27000" departLane="free" vehsPerHour="1100" type="Car"/>
	<flow id="type0_1_15" color="1,1,0"    route="route0_1"      begin="25200" end= "27000" departLane="free" vehsPerHour="1170" type="Car"/>
	<flow id="type1_0_15" color="1,1,0"    route="route1_0"      begin="25200" end= "27000" departLane="free" vehsPerHour="600" type="Car"/>
	<flow id="type1_1_15" color="1,1,0"    route="route1_1"      begin="25200" end= "27000" departLane="free" vehsPerHour="620" type="Car"/>
	<flow id="type2_0_15" color="1,1,0"    route="route2_0"      begin="25200" end= "27000" departLane="free" vehsPerHour="1170" type="Car"/>
	<flow id="type2_1_15" color="1,1,0"    route="route2_1"      begin="25200" end= "27000" departLane="free" vehsPerHour="1150" type="Car"/>
	<flow id="type3_0_15" color="1,1,0"    route="route3_0"      begin="25200" end= "27000" departLane="free" vehsPerHour="650" type="Car"/>
	<flow id="type3_1_15" color="1,1,0"    route="route3_1"      begin="25200" end= "27000" departLane="free" vehsPerHour="660" type="Car"/>
	
	<flow id="type0_0_16" color="1,1,0"    route="route0_0"      begin="27200" end= "30000" departLane="free" vehsPerHour="420" type="Car"/>
	<flow id="type0_0_161" color="255,0,0" route="route0_01"  begin="27200" end= "30000" departLane="free" vehsPerHour="350" type="Car"/>
	<flow id="type0_1_16" color="1,1,0"    route="route0_1"      begin="27200" end= "30000" departLane="free" vehsPerHour="410" type="Car"/>
	<flow id="type0_1_161" color="255,0,0" route="route0_11"  begin="27200" end= "30000" departLane="free" vehsPerHour="350" type="Car"/>
	<flow id="type1_0_16" color="1,1,0"    route="route1_0"      begin="27200" end= "30000" departLane="free" vehsPerHour="420" type="Car"/>
	<flow id="type1_0_161" color="255,0,0" route="route1_01"  begin="27200" end= "30000" departLane="free" vehsPerHour="350" type="Car"/>
	<flow id="type1_1_16" color="1,1,0"    route="route1_1"      begin="27200" end= "30000" departLane="free" vehsPerHour="430" type="Car"/>
	<flow id="type1_1_161" color="255,0,0" route="route1_11"  begin="27200" end= "30000" departLane="free" vehsPerHour="350" type="Car"/>
	<flow id="type2_0_16" color="1,1,0"    route="route2_0"      begin="27200" end= "30000" departLane="free" vehsPerHour="420" type="Car"/>
	<flow id="type2_0_161" color="255,0,0" route="route2_01"  begin="27200" end= "30000" departLane="free" vehsPerHour="350" type="Car"/>
	<flow id="type2_1_16" color="1,1,0"    route="route2_1"      begin="27200" end= "30000" departLane="free" vehsPerHour="425" type="Car"/>
	<flow id="type2_1_161" color="255,0,0" route="route2_11"  begin="27200" end= "30000" departLane="free" vehsPerHour="350" type="Car"/>
	<flow id="type3_0_16" color="1,1,0"    route="route3_0"      begin="27200" end= "30000" departLane="free" vehsPerHour="420" type="Car"/>
	<flow id="type3_0_161" color="255,0,0" route="route3_01"  begin="27200" end= "30000" departLane="free" vehsPerHour="350" type="Car"/>
	<flow id="type3_1_16" color="1,1,0"    route="route3_1"      begin="27200" end= "30000" departLane="free" vehsPerHour="415" type="Car"/>
	<flow id="type3_1_161" color="255,0,0" route="route3_11"  begin="27200" end= "30000" departLane="free" vehsPerHour="350" type="Car"/>
	
	<flow id="type0_0_17" color="1,1,0"    route="route0_0"      begin="30200" end="33000" departLane="free" vehsPerHour="1100" type="Car"/>
	<flow id="type0_1_17" color="1,1,0"    route="route0_1"      begin="30200" end="33000" departLane="free" vehsPerHour="620" type="Car"/>
	<flow id="type1_0_17" color="1,1,0"    route="route1_0"      begin="30200" end="33000" departLane="free" vehsPerHour="1100" type="Car"/>
	<flow id="type1_1_17" color="1,1,0"    route="route1_1"      begin="30200" end="33000" departLane="free" vehsPerHour="640" type="Car"/>
	<flow id="type2_0_17" color="1,1,0"    route="route2_0"      begin="30200" end="33000" departLane="free" vehsPerHour="1150" type="Car"/>
	<flow id="type2_1_17" color="1,1,0"    route="route2_1"      begin="30200" end="33000" departLane="free" vehsPerHour="660" type="Car"/>
	<flow id="type3_0_17" color="1,1,0"    route="route3_0"      begin="30200" end="33000" departLane="free" vehsPerHour="1170" type="Car"/>
	<flow id="type3_1_17" color="1,1,0"    route="route3_1"      begin="30200" end="33000" departLane="free" vehsPerHour="650" type="Car"/>
	
	<flow id="type0_0_18" color="1,1,0"    route="route0_0"      begin="33200" end= "35500" departLane="free" vehsPerHour="600" type="Car"/>
	<flow id="type0_1_18" color="1,1,0"    route="route0_1"      begin="33200" end= "35500" departLane="free" vehsPerHour="1170" type="Car"/>
	<flow id="type1_0_18" color="1,1,0"    route="route1_0"      begin="33200" end= "35500" departLane="free" vehsPerHour="600" type="Car"/>
	<flow id="type1_1_18" color="1,1,0"    route="route1_1"      begin="33200" end= "35500" departLane="free" vehsPerHour="1120" type="Car"/>
	<flow id="type2_0_18" color="1,1,0"    route="route2_0"      begin="33200" end= "35500" departLane="free" vehsPerHour="670" type="Car"/>
	<flow id="type2_1_18" color="1,1,0"    route="route2_1"      begin="33200" end= "35500" departLane="free" vehsPerHour="1150" type="Car"/>
	<flow id="type3_0_18" color="1,1,0"    route="route3_0"      begin="33200" end= "35500" departLane="free" vehsPerHour="650" type="Car"/>
	<flow id="type3_1_18" color="1,1,0"    route="route3_1"      begin="33200" end= "35500" departLane="free" vehsPerHour="1160" type="Car"/>
	
	<flow id="type0_0_19" color="1,1,0"    route="route0_0"      begin="35700" end= "38000" departLane="free" vehsPerHour="420" type="Car"/>
	<flow id="type0_0_191" color="255,0,0" route="route0_01"  begin="35700" end= "38000" departLane="free" vehsPerHour="350" type="Car"/>
	<flow id="type0_1_19" color="1,1,0"    route="route0_1"      begin="35700" end= "38000" departLane="free" vehsPerHour="410" type="Car"/>
	<flow id="type0_1_191" color="255,0,0" route="route0_11"  begin="35700" end= "38000" departLane="free" vehsPerHour="350" type="Car"/>
	<flow id="type1_0_19" color="1,1,0"    route="route1_0"      begin="35700" end= "38000" departLane="free" vehsPerHour="420" type="Car"/>
	<flow id="type1_0_191" color="255,0,0" route="route1_01"  begin="35700" end= "38000" departLane="free" vehsPerHour="350" type="Car"/>
	<flow id="type1_1_19" color="1,1,0"    route="route1_1"      begin="35700" end= "38000" departLane="free" vehsPerHour="430" type="Car"/>
	<flow id="type1_1_191" color="255,0,0" route="route1_11"  begin="35700" end= "38000" departLane="free" vehsPerHour="350" type="Car"/>
	<flow id="type2_0_19" color="1,1,0"    route="route2_0"      begin="35700" end= "38000" departLane="free" vehsPerHour="420" type="Car"/>
	<flow id="type2_0_191" color="255,0,0" route="route2_01"  begin="35700" end= "38000" departLane="free" vehsPerHour="350" type="Car"/>
	<flow id="type2_1_19" color="1,1,0"    route="route2_1"      begin="35700" end= "38000" departLane="free" vehsPerHour="425" type="Car"/>
	<flow id="type2_1_191" color="255,0,0" route="route2_11"  begin="35700" end= "38000" departLane="free" vehsPerHour="350" type="Car"/>
	<flow id="type3_0_19" color="1,1,0"    route="route3_0"      begin="35700" end= "38000" departLane="free" vehsPerHour="420" type="Car"/>
	<flow id="type3_0_191" color="255,0,0" route="route3_01"  begin="35700" end= "38000" departLane="free" vehsPerHour="350" type="Car"/>
	<flow id="type3_1_19" color="1,1,0"    route="route3_1"      begin="35700" end= "38000" departLane="free" vehsPerHour="415" type="Car"/>
	<flow id="type3_1_191" color="255,0,0" route="route3_11"  begin="35700" end= "38000" departLane="free" vehsPerHour="350" type="Car"/>
	
	