<?xml version="1.0" encoding="UTF-8"?>

<!-- generated on 01/23/14 09:48:47 by SUMO netconvert Version 0.17.1
<?xml version="1.0" encoding="UTF-8"?>

<configuration xmlns:xsi="http://www.w3.org/2001/XMLSchema-instance" xsi:noNamespaceSchemaLocation="http://sumo.sf.net/xsd/netconvertConfiguration.xsd">

    <input>
        <node-files value="hello.nod.xml"/>
        <edge-files value="hello.edg.xml"/>
        <connection-files value="hello.con.xml"/>
        <type-files value="types.typ.xml"/>
    </input>

    <output>
        <output-file value="hello.net.xml"/>
    </output>

    <report>
        <verbose value="true"/>
    </report>

</configuration>
-->

<net version="0.13" xmlns:xsi="http://www.w3.org/2001/XMLSchema-instance" xsi:noNamespaceSchemaLocation="http://sumo.sf.net/xsd/net_file.xsd">

    <location netOffset="600.00,1200.00" convBoundary="0.00,0.00,1800.00,1800.00" origBoundary="-600.00,-1200.00,1200.00,600.00" projParameter="!"/>

    <edge id=":agent1_0" function="internal">
        <lane id=":agent1_0_0" index="0" speed="40.00" length="5.00" shape="595.05,1208.05 594.86,1206.69 594.27,1205.72 593.31,1205.14 591.95,1204.95"/>
    </edge>
    <edge id=":agent1_1" function="internal">
        <lane id=":agent1_1_0" index="0" speed="40.00" length="16.10" shape="595.05,1208.05 595.05,1203.27 595.05,1200.00 595.05,1196.73 595.05,1191.95"/>
    </edge>
    <edge id=":agent1_2" function="internal">
        <lane id=":agent1_2_0" index="0" speed="40.00" length="16.10" shape="598.35,1208.05 598.35,1203.27 598.35,1200.00 598.35,1196.73 598.35,1191.95"/>
    </edge>
    <edge id=":agent1_3" function="internal">
        <lane id=":agent1_3_0" index="0" speed="40.00" length="3.13" shape="598.35,1208.05 598.79,1204.95"/>
    </edge>
    <edge id=":agent1_16" function="internal">
        <lane id=":agent1_16_0" index="0" speed="40.00" length="12.51" shape="598.79,1204.95 598.96,1203.81 600.78,1200.78 603.81,1198.96 608.05,1198.35"/>
    </edge>
    <edge id=":agent1_4" function="internal">
        <lane id=":agent1_4_0" index="0" speed="40.00" length="5.00" shape="608.05,1204.95 606.69,1205.14 605.73,1205.73 605.14,1206.69 604.95,1208.05"/>
    </edge>
    <edge id=":agent1_5" function="internal">
        <lane id=":agent1_5_0" index="0" speed="40.00" length="16.10" shape="608.05,1204.95 603.27,1204.95 600.00,1204.95 596.73,1204.95 591.95,1204.95"/>
    </edge>
    <edge id=":agent1_6" function="internal">
        <lane id=":agent1_6_0" index="0" speed="40.00" length="16.10" shape="608.05,1201.65 603.27,1201.65 600.00,1201.65 596.73,1201.65 591.95,1201.65"/>
    </edge>
    <edge id=":agent1_7" function="internal">
        <lane id=":agent1_7_0" index="0" speed="40.00" length="3.13" shape="608.05,1201.65 604.95,1201.21"/>
    </edge>
    <edge id=":agent1_17" function="internal">
        <lane id=":agent1_17_0" index="0" speed="40.00" length="12.51" shape="604.95,1201.21 603.81,1201.04 600.77,1199.23 598.96,1196.19 598.35,1191.95"/>
    </edge>
    <edge id=":agent1_8" function="internal">
        <lane id=":agent1_8_0" index="0" speed="40.00" length="5.00" shape="604.95,1191.95 605.14,1193.31 605.73,1194.28 606.69,1194.86 608.05,1195.05"/>
    </edge>
    <edge id=":agent1_9" function="internal">
        <lane id=":agent1_9_0" index="0" speed="40.00" length="16.10" shape="604.95,1191.95 604.95,1196.73 604.95,1200.00 604.95,1203.27 604.95,1208.05"/>
    </edge>
    <edge id=":agent1_10" function="internal">
        <lane id=":agent1_10_0" index="0" speed="40.00" length="16.10" shape="601.65,1191.95 601.65,1196.73 601.65,1200.00 601.65,1203.27 601.65,1208.05"/>
    </edge>
    <edge id=":agent1_11" function="internal">
        <lane id=":agent1_11_0" index="0" speed="40.00" length="3.13" shape="601.65,1191.95 601.21,1195.05"/>
    </edge>
    <edge id=":agent1_18" function="internal">
        <lane id=":agent1_18_0" index="0" speed="40.00" length="12.51" shape="601.21,1195.05 601.04,1196.19 599.22,1199.22 596.19,1201.04 591.95,1201.65"/>
    </edge>
    <edge id=":agent1_12" function="internal">
        <lane id=":agent1_12_0" index="0" speed="40.00" length="5.00" shape="591.95,1195.05 593.31,1194.86 594.27,1194.27 594.86,1193.31 595.05,1191.95"/>
    </edge>
    <edge id=":agent1_13" function="internal">
        <lane id=":agent1_13_0" index="0" speed="40.00" length="16.10" shape="591.95,1195.05 596.73,1195.05 600.00,1195.05 603.27,1195.05 608.05,1195.05"/>
    </edge>
    <edge id=":agent1_14" function="internal">
        <lane id=":agent1_14_0" index="0" speed="40.00" length="16.10" shape="591.95,1198.35 596.73,1198.35 600.00,1198.35 603.27,1198.35 608.05,1198.35"/>
    </edge>
    <edge id=":agent1_15" function="internal">
        <lane id=":agent1_15_0" index="0" speed="40.00" length="3.12" shape="591.95,1198.35 595.05,1198.68"/>
    </edge>
    <edge id=":agent1_19" function="internal">
        <lane id=":agent1_19_0" index="0" speed="40.00" length="15.26" shape="595.05,1198.68 597.64,1198.96 601.70,1200.77 604.14,1203.81 604.95,1208.05"/>
    </edge>
    <edge id=":agent1est_0" function="internal">
        <lane id=":agent1est_0_0" index="0" speed="40.00" length="4.82" shape="0.00,1201.65 -1.24,1200.82 -1.65,1200.00 -1.24,1199.18 0.00,1198.35"/>
    </edge>
    <edge id=":agent1north_0" function="internal">
        <lane id=":agent1north_0_0" index="0" speed="40.00" length="4.82" shape="601.65,1800.00 600.82,1801.24 600.00,1801.65 599.17,1801.24 598.35,1800.00"/>
    </edge>
    <edge id=":agent2_0" function="internal">
        <lane id=":agent2_0_0" index="0" speed="40.00" length="5.00" shape="1195.05,1208.05 1194.86,1206.69 1194.27,1205.72 1193.31,1205.14 1191.95,1204.95"/>
    </edge>
    <edge id=":agent2_1" function="internal">
        <lane id=":agent2_1_0" index="0" speed="40.00" length="16.10" shape="1195.05,1208.05 1195.05,1203.27 1195.05,1200.00 1195.05,1196.73 1195.05,1191.95"/>
    </edge>
    <edge id=":agent2_2" function="internal">
        <lane id=":agent2_2_0" index="0" speed="40.00" length="16.10" shape="1198.35,1208.05 1198.35,1203.27 1198.35,1200.00 1198.35,1196.73 1198.35,1191.95"/>
    </edge>
    <edge id=":agent2_3" function="internal">
        <lane id=":agent2_3_0" index="0" speed="40.00" length="3.13" shape="1198.35,1208.05 1198.79,1204.95"/>
    </edge>
    <edge id=":agent2_16" function="internal">
        <lane id=":agent2_16_0" index="0" speed="40.00" length="12.51" shape="1198.79,1204.95 1198.96,1203.81 1200.77,1200.78 1203.81,1198.96 1208.05,1198.35"/>
    </edge>
    <edge id=":agent2_4" function="internal">
        <lane id=":agent2_4_0" index="0" speed="40.00" length="5.00" shape="1208.05,1204.95 1206.69,1205.14 1205.72,1205.73 1205.14,1206.69 1204.95,1208.05"/>
    </edge>
    <edge id=":agent2_5" function="internal">
        <lane id=":agent2_5_0" index="0" speed="40.00" length="16.10" shape="1208.05,1204.95 1203.27,1204.95 1200.00,1204.95 1196.73,1204.95 1191.95,1204.95"/>
    </edge>
    <edge id=":agent2_6" function="internal">
        <lane id=":agent2_6_0" index="0" speed="40.00" length="16.10" shape="1208.05,1201.65 1203.27,1201.65 1200.00,1201.65 1196.73,1201.65 1191.95,1201.65"/>
    </edge>
    <edge id=":agent2_7" function="internal">
        <lane id=":agent2_7_0" index="0" speed="40.00" length="3.13" shape="1208.05,1201.65 1204.95,1201.21"/>
    </edge>
    <edge id=":agent2_17" function="internal">
        <lane id=":agent2_17_0" index="0" speed="40.00" length="12.51" shape="1204.95,1201.21 1203.81,1201.04 1200.78,1199.23 1198.96,1196.19 1198.35,1191.95"/>
    </edge>
    <edge id=":agent2_8" function="internal">
        <lane id=":agent2_8_0" index="0" speed="40.00" length="5.00" shape="1204.95,1191.95 1205.14,1193.31 1205.73,1194.28 1206.69,1194.86 1208.05,1195.05"/>
    </edge>
    <edge id=":agent2_9" function="internal">
        <lane id=":agent2_9_0" index="0" speed="40.00" length="16.10" shape="1204.95,1191.95 1204.95,1196.73 1204.95,1200.00 1204.95,1203.27 1204.95,1208.05"/>
    </edge>
    <edge id=":agent2_10" function="internal">
        <lane id=":agent2_10_0" index="0" speed="40.00" length="16.10" shape="1201.65,1191.95 1201.65,1196.73 1201.65,1200.00 1201.65,1203.27 1201.65,1208.05"/>
    </edge>
    <edge id=":agent2_11" function="internal">
        <lane id=":agent2_11_0" index="0" speed="40.00" length="3.13" shape="1201.65,1191.95 1201.21,1195.05"/>
    </edge>
    <edge id=":agent2_18" function="internal">
        <lane id=":agent2_18_0" index="0" speed="40.00" length="12.51" shape="1201.21,1195.05 1201.04,1196.19 1199.23,1199.22 1196.19,1201.04 1191.95,1201.65"/>
    </edge>
    <edge id=":agent2_12" function="internal">
        <lane id=":agent2_12_0" index="0" speed="40.00" length="5.00" shape="1191.95,1195.05 1193.31,1194.86 1194.28,1194.27 1194.86,1193.31 1195.05,1191.95"/>
    </edge>
    <edge id=":agent2_13" function="internal">
        <lane id=":agent2_13_0" index="0" speed="40.00" length="16.10" shape="1191.95,1195.05 1196.73,1195.05 1200.00,1195.05 1203.27,1195.05 1208.05,1195.05"/>
    </edge>
    <edge id=":agent2_14" function="internal">
        <lane id=":agent2_14_0" index="0" speed="40.00" length="16.10" shape="1191.95,1198.35 1196.73,1198.35 1200.00,1198.35 1203.27,1198.35 1208.05,1198.35"/>
    </edge>
    <edge id=":agent2_15" function="internal">
        <lane id=":agent2_15_0" index="0" speed="40.00" length="3.13" shape="1191.95,1198.35 1195.05,1198.79"/>
    </edge>
    <edge id=":agent2_19" function="internal">
        <lane id=":agent2_19_0" index="0" speed="40.00" length="12.51" shape="1195.05,1198.79 1196.19,1198.96 1199.22,1200.77 1201.04,1203.81 1201.65,1208.05"/>
    </edge>
    <edge id=":agent2north_0" function="internal">
        <lane id=":agent2north_0_0" index="0" speed="40.00" length="4.82" shape="1201.65,1800.00 1200.82,1801.24 1200.00,1801.65 1199.18,1801.24 1198.35,1800.00"/>
    </edge>
    <edge id=":agent2ouest_0" function="internal">
        <lane id=":agent2ouest_0_0" index="0" speed="40.00" length="4.82" shape="1800.00,1198.35 1801.24,1199.18 1801.65,1200.00 1801.24,1200.83 1800.00,1201.65"/>
    </edge>
    <edge id=":agent3_0" function="internal">
        <lane id=":agent3_0_0" index="0" speed="40.00" length="5.00" shape="1195.05,608.05 1194.86,606.69 1194.27,605.73 1193.31,605.14 1191.95,604.95"/>
    </edge>
    <edge id=":agent3_1" function="internal">
        <lane id=":agent3_1_0" index="0" speed="40.00" length="16.10" shape="1195.05,608.05 1195.05,603.27 1195.05,600.00 1195.05,596.73 1195.05,591.95"/>
    </edge>
    <edge id=":agent3_2" function="internal">
        <lane id=":agent3_2_0" index="0" speed="40.00" length="16.10" shape="1198.35,608.05 1198.35,603.27 1198.35,600.00 1198.35,596.73 1198.35,591.95"/>
    </edge>
    <edge id=":agent3_3" function="internal">
        <lane id=":agent3_3_0" index="0" speed="40.00" length="3.13" shape="1198.35,608.05 1198.79,604.95"/>
    </edge>
    <edge id=":agent3_16" function="internal">
        <lane id=":agent3_16_0" index="0" speed="40.00" length="12.51" shape="1198.79,604.95 1198.96,603.81 1200.77,600.78 1203.81,598.96 1208.05,598.35"/>
    </edge>
    <edge id=":agent3_4" function="internal">
        <lane id=":agent3_4_0" index="0" speed="40.00" length="5.00" shape="1208.05,604.95 1206.69,605.14 1205.72,605.73 1205.14,606.69 1204.95,608.05"/>
    </edge>
    <edge id=":agent3_5" function="internal">
        <lane id=":agent3_5_0" index="0" speed="40.00" length="16.10" shape="1208.05,604.95 1203.27,604.95 1200.00,604.95 1196.73,604.95 1191.95,604.95"/>
    </edge>
    <edge id=":agent3_6" function="internal">
        <lane id=":agent3_6_0" index="0" speed="40.00" length="16.10" shape="1208.05,601.65 1203.27,601.65 1200.00,601.65 1196.73,601.65 1191.95,601.65"/>
    </edge>
    <edge id=":agent3_7" function="internal">
        <lane id=":agent3_7_0" index="0" speed="40.00" length="3.13" shape="1208.05,601.65 1204.95,601.21"/>
    </edge>
    <edge id=":agent3_17" function="internal">
        <lane id=":agent3_17_0" index="0" speed="40.00" length="12.51" shape="1204.95,601.21 1203.81,601.04 1200.78,599.22 1198.96,596.19 1198.35,591.95"/>
    </edge>
    <edge id=":agent3_8" function="internal">
        <lane id=":agent3_8_0" index="0" speed="40.00" length="5.00" shape="1204.95,591.95 1205.14,593.31 1205.73,594.27 1206.69,594.86 1208.05,595.05"/>
    </edge>
    <edge id=":agent3_9" function="internal">
        <lane id=":agent3_9_0" index="0" speed="40.00" length="16.10" shape="1204.95,591.95 1204.95,596.73 1204.95,600.00 1204.95,603.27 1204.95,608.05"/>
    </edge>
    <edge id=":agent3_10" function="internal">
        <lane id=":agent3_10_0" index="0" speed="40.00" length="16.10" shape="1201.65,591.95 1201.65,596.73 1201.65,600.00 1201.65,603.27 1201.65,608.05"/>
    </edge>
    <edge id=":agent3_11" function="internal">
        <lane id=":agent3_11_0" index="0" speed="40.00" length="3.13" shape="1201.65,591.95 1201.21,595.05"/>
    </edge>
    <edge id=":agent3_18" function="internal">
        <lane id=":agent3_18_0" index="0" speed="40.00" length="12.51" shape="1201.21,595.05 1201.04,596.19 1199.23,599.23 1196.19,601.04 1191.95,601.65"/>
    </edge>
    <edge id=":agent3_12" function="internal">
        <lane id=":agent3_12_0" index="0" speed="40.00" length="5.00" shape="1191.95,595.05 1193.31,594.86 1194.28,594.27 1194.86,593.31 1195.05,591.95"/>
    </edge>
    <edge id=":agent3_13" function="internal">
        <lane id=":agent3_13_0" index="0" speed="40.00" length="16.10" shape="1191.95,595.05 1196.73,595.05 1200.00,595.05 1203.27,595.05 1208.05,595.05"/>
    </edge>
    <edge id=":agent3_14" function="internal">
        <lane id=":agent3_14_0" index="0" speed="40.00" length="16.10" shape="1191.95,598.35 1196.73,598.35 1200.00,598.35 1203.27,598.35 1208.05,598.35"/>
    </edge>
    <edge id=":agent3_15" function="internal">
        <lane id=":agent3_15_0" index="0" speed="40.00" length="3.13" shape="1191.95,598.35 1195.05,598.79"/>
    </edge>
    <edge id=":agent3_19" function="internal">
        <lane id=":agent3_19_0" index="0" speed="40.00" length="12.51" shape="1195.05,598.79 1196.19,598.96 1199.22,600.78 1201.04,603.81 1201.65,608.05"/>
    </edge>
    <edge id=":agent3ouest_0" function="internal">
        <lane id=":agent3ouest_0_0" index="0" speed="40.00" length="4.82" shape="1800.00,598.35 1801.24,599.18 1801.65,600.00 1801.24,600.83 1800.00,601.65"/>
    </edge>
    <edge id=":agent3south_0" function="internal">
        <lane id=":agent3south_0_0" index="0" speed="40.00" length="4.82" shape="1198.35,0.00 1199.18,-1.24 1200.00,-1.65 1200.83,-1.24 1201.65,0.00"/>
    </edge>
    <edge id=":agent4_0" function="internal">
        <lane id=":agent4_0_0" index="0" speed="40.00" length="5.00" shape="595.05,608.05 594.86,606.69 594.27,605.73 593.31,605.14 591.95,604.95"/>
    </edge>
    <edge id=":agent4_1" function="internal">
        <lane id=":agent4_1_0" index="0" speed="40.00" length="16.10" shape="595.05,608.05 595.05,603.27 595.05,600.00 595.05,596.73 595.05,591.95"/>
    </edge>
    <edge id=":agent4_2" function="internal">
        <lane id=":agent4_2_0" index="0" speed="40.00" length="16.10" shape="598.35,608.05 598.35,603.27 598.35,600.00 598.35,596.73 598.35,591.95"/>
    </edge>
    <edge id=":agent4_3" function="internal">
        <lane id=":agent4_3_0" index="0" speed="40.00" length="3.13" shape="598.35,608.05 598.79,604.95"/>
    </edge>
    <edge id=":agent4_16" function="internal">
        <lane id=":agent4_16_0" index="0" speed="40.00" length="12.51" shape="598.79,604.95 598.96,603.81 600.78,600.77 603.81,598.96 608.05,598.35"/>
    </edge>
    <edge id=":agent4_4" function="internal">
        <lane id=":agent4_4_0" index="0" speed="40.00" length="5.00" shape="608.05,604.95 606.69,605.14 605.73,605.73 605.14,606.69 604.95,608.05"/>
    </edge>
    <edge id=":agent4_5" function="internal">
        <lane id=":agent4_5_0" index="0" speed="40.00" length="16.10" shape="608.05,604.95 603.27,604.95 600.00,604.95 596.73,604.95 591.95,604.95"/>
    </edge>
    <edge id=":agent4_6" function="internal">
        <lane id=":agent4_6_0" index="0" speed="40.00" length="16.10" shape="608.05,601.65 603.27,601.65 600.00,601.65 596.73,601.65 591.95,601.65"/>
    </edge>
    <edge id=":agent4_7" function="internal">
        <lane id=":agent4_7_0" index="0" speed="40.00" length="3.13" shape="608.05,601.65 604.95,601.21"/>
    </edge>
    <edge id=":agent4_17" function="internal">
        <lane id=":agent4_17_0" index="0" speed="40.00" length="12.51" shape="604.95,601.21 603.81,601.04 600.77,599.22 598.96,596.19 598.35,591.95"/>
    </edge>
    <edge id=":agent4_8" function="internal">
        <lane id=":agent4_8_0" index="0" speed="40.00" length="5.00" shape="604.95,591.95 605.14,593.31 605.73,594.27 606.69,594.86 608.05,595.05"/>
    </edge>
    <edge id=":agent4_9" function="internal">
        <lane id=":agent4_9_0" index="0" speed="40.00" length="16.10" shape="604.95,591.95 604.95,596.73 604.95,600.00 604.95,603.27 604.95,608.05"/>
    </edge>
    <edge id=":agent4_10" function="internal">
        <lane id=":agent4_10_0" index="0" speed="40.00" length="16.10" shape="601.65,591.95 601.65,596.73 601.65,600.00 601.65,603.27 601.65,608.05"/>
    </edge>
    <edge id=":agent4_11" function="internal">
        <lane id=":agent4_11_0" index="0" speed="40.00" length="3.13" shape="601.65,591.95 601.21,595.05"/>
    </edge>
    <edge id=":agent4_18" function="internal">
        <lane id=":agent4_18_0" index="0" speed="40.00" length="12.51" shape="601.21,595.05 601.04,596.19 599.22,599.23 596.19,601.04 591.95,601.65"/>
    </edge>
    <edge id=":agent4_12" function="internal">
        <lane id=":agent4_12_0" index="0" speed="40.00" length="5.00" shape="591.95,595.05 593.31,594.86 594.27,594.27 594.86,593.31 595.05,591.95"/>
    </edge>
    <edge id=":agent4_13" function="internal">
        <lane id=":agent4_13_0" index="0" speed="40.00" length="16.10" shape="591.95,595.05 596.73,595.05 600.00,595.05 603.27,595.05 608.05,595.05"/>
    </edge>
    <edge id=":agent4_14" function="internal">
        <lane id=":agent4_14_0" index="0" speed="40.00" length="16.10" shape="591.95,598.35 596.73,598.35 600.00,598.35 603.27,598.35 608.05,598.35"/>
    </edge>
    <edge id=":agent4_15" function="internal">
        <lane id=":agent4_15_0" index="0" speed="40.00" length="3.13" shape="591.95,598.35 595.05,598.79"/>
    </edge>
    <edge id=":agent4_19" function="internal">
        <lane id=":agent4_19_0" index="0" speed="40.00" length="12.51" shape="595.05,598.79 596.19,598.96 599.23,600.78 601.04,603.81 601.65,608.05"/>
    </edge>
    <edge id=":agent4est_0" function="internal">
        <lane id=":agent4est_0_0" index="0" speed="40.00" length="4.82" shape="0.00,601.65 -1.24,600.82 -1.65,600.00 -1.24,599.17 0.00,598.35"/>
    </edge>
    <edge id=":agent4south_0" function="internal">
        <lane id=":agent4south_0_0" index="0" speed="40.00" length="4.82" shape="598.35,0.00 599.18,-1.24 600.00,-1.65 600.83,-1.24 601.65,0.00"/>
    </edge>

    <edge id="agent1est1" from="agent1est" to="agent1" priority="3" type="a">
        <lane id="agent1est1_0" index="0" speed="40.00" length="591.95" shape="0.00,1195.05 591.95,1195.05"/>
        <lane id="agent1est1_1" index="1" speed="40.00" length="591.95" shape="0.00,1198.35 591.95,1198.35"/>
    </edge>
    <edge id="agent1est2" from="agent1" to="agent1est" priority="3" type="a">
        <lane id="agent1est2_0" index="0" speed="40.00" length="591.95" shape="591.95,1204.95 0.00,1204.95"/>
        <lane id="agent1est2_1" index="1" speed="40.00" length="591.95" shape="591.95,1201.65 0.00,1201.65"/>
    </edge>
    <edge id="agent1north1" from="agent1north" to="agent1" priority="3" type="a">
        <lane id="agent1north1_0" index="0" speed="40.00" length="591.95" shape="595.05,1800.00 595.05,1208.05"/>
        <lane id="agent1north1_1" index="1" speed="40.00" length="591.95" shape="598.35,1800.00 598.35,1208.05"/>
    </edge>
    <edge id="agent1north2" from="agent1" to="agent1north" priority="3" type="a">
        <lane id="agent1north2_0" index="0" speed="40.00" length="591.95" shape="604.95,1208.05 604.95,1800.00"/>
        <lane id="agent1north2_1" index="1" speed="40.00" length="591.95" shape="601.65,1208.05 601.65,1800.00"/>
    </edge>
    <edge id="agent1ouest1" from="agent2" to="agent1" priority="3" type="a">
        <lane id="agent1ouest1_0" index="0" speed="40.00" length="583.90" shape="1191.95,1204.95 608.05,1204.95"/>
        <lane id="agent1ouest1_1" index="1" speed="40.00" length="583.90" shape="1191.95,1201.65 608.05,1201.65"/>
    </edge>
    <edge id="agent1south1" from="agent4" to="agent1" priority="3" type="a">
        <lane id="agent1south1_0" index="0" speed="40.00" length="583.90" shape="604.95,608.05 604.95,1191.95"/>
        <lane id="agent1south1_1" index="1" speed="40.00" length="583.90" shape="601.65,608.05 601.65,1191.95"/>
    </edge>
    <edge id="agent2est1" from="agent1" to="agent2" priority="3" type="a">
        <lane id="agent2est1_0" index="0" speed="40.00" length="583.90" shape="608.05,1195.05 1191.95,1195.05"/>
        <lane id="agent2est1_1" index="1" speed="40.00" length="583.90" shape="608.05,1198.35 1191.95,1198.35"/>
    </edge>
    <edge id="agent2north1" from="agent2north" to="agent2" priority="3" type="a">
        <lane id="agent2north1_0" index="0" speed="40.00" length="591.95" shape="1195.05,1800.00 1195.05,1208.05"/>
        <lane id="agent2north1_1" index="1" speed="40.00" length="591.95" shape="1198.35,1800.00 1198.35,1208.05"/>
    </edge>
    <edge id="agent2north2" from="agent2" to="agent2north" priority="3" type="a">
        <lane id="agent2north2_0" index="0" speed="40.00" length="591.95" shape="1204.95,1208.05 1204.95,1800.00"/>
        <lane id="agent2north2_1" index="1" speed="40.00" length="591.95" shape="1201.65,1208.05 1201.65,1800.00"/>
    </edge>
    <edge id="agent2ouest1" from="agent2ouest" to="agent2" priority="3" type="a">
        <lane id="agent2ouest1_0" index="0" speed="40.00" length="591.95" shape="1800.00,1204.95 1208.05,1204.95"/>
        <lane id="agent2ouest1_1" index="1" speed="40.00" length="591.95" shape="1800.00,1201.65 1208.05,1201.65"/>
    </edge>
    <edge id="agent2ouest2" from="agent2" to="agent2ouest" priority="3" type="a">
        <lane id="agent2ouest2_0" index="0" speed="40.00" length="591.95" shape="1208.05,1195.05 1800.00,1195.05"/>
        <lane id="agent2ouest2_1" index="1" speed="40.00" length="591.95" shape="1208.05,1198.35 1800.00,1198.35"/>
    </edge>
    <edge id="agent2south1" from="agent3" to="agent2" priority="3" type="a">
        <lane id="agent2south1_0" index="0" speed="40.00" length="583.90" shape="1204.95,608.05 1204.95,1191.95"/>
        <lane id="agent2south1_1" index="1" speed="40.00" length="583.90" shape="1201.65,608.05 1201.65,1191.95"/>
    </edge>
    <edge id="agent3est1" from="agent4" to="agent3" priority="3" type="a">
        <lane id="agent3est1_0" index="0" speed="40.00" length="583.90" shape="608.05,595.05 1191.95,595.05"/>
        <lane id="agent3est1_1" index="1" speed="40.00" length="583.90" shape="608.05,598.35 1191.95,598.35"/>
    </edge>
    <edge id="agent3north1" from="agent2" to="agent3" priority="3" type="a">
        <lane id="agent3north1_0" index="0" speed="40.00" length="583.90" shape="1195.05,1191.95 1195.05,608.05"/>
        <lane id="agent3north1_1" index="1" speed="40.00" length="583.90" shape="1198.35,1191.95 1198.35,608.05"/>
    </edge>
    <edge id="agent3ouest1" from="agent3ouest" to="agent3" priority="3" type="a">
        <lane id="agent3ouest1_0" index="0" speed="40.00" length="591.95" shape="1800.00,604.95 1208.05,604.95"/>
        <lane id="agent3ouest1_1" index="1" speed="40.00" length="591.95" shape="1800.00,601.65 1208.05,601.65"/>
    </edge>
    <edge id="agent3ouest2" from="agent3" to="agent3ouest" priority="3" type="a">
        <lane id="agent3ouest2_0" index="0" speed="40.00" length="591.95" shape="1208.05,595.05 1800.00,595.05"/>
        <lane id="agent3ouest2_1" index="1" speed="40.00" length="591.95" shape="1208.05,598.35 1800.00,598.35"/>
    </edge>
    <edge id="agent3south1" from="agent3south" to="agent3" priority="3" type="a">
        <lane id="agent3south1_0" index="0" speed="40.00" length="591.95" shape="1204.95,0.00 1204.95,591.95"/>
        <lane id="agent3south1_1" index="1" speed="40.00" length="591.95" shape="1201.65,0.00 1201.65,591.95"/>
    </edge>
    <edge id="agent3south2" from="agent3" to="agent3south" priority="3" type="a">
        <lane id="agent3south2_0" index="0" speed="40.00" length="591.95" shape="1195.05,591.95 1195.05,0.00"/>
        <lane id="agent3south2_1" index="1" speed="40.00" length="591.95" shape="1198.35,591.95 1198.35,0.00"/>
    </edge>
    <edge id="agent4est1" from="agent4est" to="agent4" priority="3" type="a">
        <lane id="agent4est1_0" index="0" speed="40.00" length="591.95" shape="0.00,595.05 591.95,595.05"/>
        <lane id="agent4est1_1" index="1" speed="40.00" length="591.95" shape="0.00,598.35 591.95,598.35"/>
    </edge>
    <edge id="agent4est2" from="agent4" to="agent4est" priority="3" type="a">
        <lane id="agent4est2_0" index="0" speed="40.00" length="591.95" shape="591.95,604.95 0.00,604.95"/>
        <lane id="agent4est2_1" index="1" speed="40.00" length="591.95" shape="591.95,601.65 0.00,601.65"/>
    </edge>
    <edge id="agent4north1" from="agent1" to="agent4" priority="3" type="a">
        <lane id="agent4north1_0" index="0" speed="40.00" length="583.90" shape="595.05,1191.95 595.05,608.05"/>
        <lane id="agent4north1_1" index="1" speed="40.00" length="583.90" shape="598.35,1191.95 598.35,608.05"/>
    </edge>
    <edge id="agent4ouest1" from="agent3" to="agent4" priority="3" type="a">
        <lane id="agent4ouest1_0" index="0" speed="40.00" length="583.90" shape="1191.95,604.95 608.05,604.95"/>
        <lane id="agent4ouest1_1" index="1" speed="40.00" length="583.90" shape="1191.95,601.65 608.05,601.65"/>
    </edge>
    <edge id="agent4south1" from="agent4south" to="agent4" priority="3" type="a">
        <lane id="agent4south1_0" index="0" speed="40.00" length="591.95" shape="604.95,0.00 604.95,591.95"/>
        <lane id="agent4south1_1" index="1" speed="40.00" length="591.95" shape="601.65,0.00 601.65,591.95"/>
    </edge>
    <edge id="agent4south2" from="agent4" to="agent4south" priority="3" type="a">
        <lane id="agent4south2_0" index="0" speed="40.00" length="591.95" shape="595.05,591.95 595.05,0.00"/>
        <lane id="agent4south2_1" index="1" speed="40.00" length="591.95" shape="598.35,591.95 598.35,0.00"/>
    </edge>

    <tlLogic id="agent1" type="static" programID="0" offset="0">
	
		<phase duration="1" state="rrrrrrrrrrrrrrrr"/>
		
		<phase duration="23" state="rrrrGGGGrrrrrrrr"/>
        <phase duration="2" state="rrrryyyyrrrrrrrr"/>
		<phase duration="23" state="rrrrrrrrGGGGrrrr"/>
        <phase duration="2" state="rrrrrrrryyyyrrrrr"/>
		<phase duration="23" state="rrrrrrrrrrrrGGGG"/>
        <phase duration="2" state="rrrrrrrrrrrryyyy"/>
		<phase duration="23" state="GGGGrrrrrrrrrrrr"/>
        <phase duration="2" state="yyyyrrrrrrrrrrrr"/>
		
        
    </tlLogic>
    <tlLogic id="agent2" type="static" programID="0" offset="0">
	
		<phase duration="1" state="rrrrrrrrrrrrrrrr"/>
		<phase duration="23" state="rrrrrrrrGGGGrrrr"/>
        <phase duration="2" state="rrrrrrrryyyyrrrrr"/>
		<phase duration="23" state="rrrrrrrrrrrrGGGG"/>
        <phase duration="2" state="rrrrrrrrrrrryyyy"/>
		<phase duration="23" state="GGGGrrrrrrrrrrrr"/>
        <phase duration="2" state="yyyyrrrrrrrrrrrr"/>
		<phase duration="23" state="rrrrGGGGrrrrrrrr"/>
        <phase duration="2" state="rrrryyyyrrrrrrrr"/>
       
    </tlLogic>
    <tlLogic id="agent3" type="static" programID="0" offset="0">
		<phase duration="1" state="rrrrrrrrrrrrrrrr"/>
		<phase duration="23" state="GGGGrrrrrrrrrrrr"/>
        <phase duration="2" state="yyyyrrrrrrrrrrrr"/>
		<phase duration="23" state="rrrrGGGGrrrrrrrr"/>
        <phase duration="2" state="rrrryyyyrrrrrrrr"/>
		<phase duration="23" state="rrrrrrrrGGGGrrrr"/>
        <phase duration="2" state="rrrrrrrryyyyrrrrr"/>
		<phase duration="23" state="rrrrrrrrrrrrGGGG"/>
        <phase duration="2" state="rrrrrrrrrrrryyyy"/>
       
    </tlLogic>
    <tlLogic id="agent4" type="static" programID="0" offset="0">
        <phase duration="1" state="rrrrrrrrrrrrrrrr"/>
		<phase duration="23" state="rrrrrrrrrrrrGGGG"/>
        <phase duration="2" state="rrrrrrrrrrrryyyy"/>
		<phase duration="23" state="GGGGrrrrrrrrrrrr"/>
        <phase duration="2" state="yyyyrrrrrrrrrrrr"/>
		<phase duration="23" state="rrrrGGGGrrrrrrrr"/>
        <phase duration="2" state="rrrryyyyrrrrrrrr"/>
		<phase duration="23" state="rrrrrrrrGGGGrrrr"/>
        <phase duration="2" state="rrrrrrrryyyyrrrrr"/>
		
    </tlLogic>


    <junction id="agent1" type="traffic_light" x="600.00" y="1200.00" incLanes="agent1north1_0 agent1north1_1 agent1ouest1_0 agent1ouest1_1 agent1south1_0 agent1south1_1 agent1est1_0 agent1est1_1" intLanes=":agent1_0_0 :agent1_1_0 :agent1_2_0 :agent1_16_0 :agent1_4_0 :agent1_5_0 :agent1_6_0 :agent1_17_0 :agent1_8_0 :agent1_9_0 :agent1_10_0 :agent1_18_0 :agent1_12_0 :agent1_13_0 :agent1_14_0 :agent1_19_0" shape="593.45,1208.05 606.55,1208.05 608.05,1206.55 608.05,1193.45 606.55,1191.95 593.45,1191.95 591.95,1193.45 591.95,1206.55">
        <request index="0" response="0000000000000000" foes="0000100001100000" cont="0"/>
        <request index="1" response="0000000000000000" foes="1111100011100000" cont="0"/>
        <request index="2" response="0000000000000000" foes="1111100011100000" cont="0"/>
        <request index="3" response="0000011100000000" foes="1110011111100000" cont="1"/>
        <request index="4" response="0000011000000000" foes="1000011000000000" cont="0"/>