<types>
   <type id="a" priority="3" numLanes="2" speed="40.00"/>
  
</types>