<?xml version="1.0" encoding="UTF-8"?>

<!-- generated on 10/08/13 12:38:28 by SUMO netconvert Version 0.17.1
<?xml version="1.0" encoding="UTF-8"?>

<configuration xmlns:xsi="http://www.w3.org/2001/XMLSchema-instance" xsi:noNamespaceSchemaLocation="http://sumo.sf.net/xsd/netconvertConfiguration.xsd">

    <input>
        <node-files value="hello.nod.xml"/>
        <edge-files value="hello.edg.xml"/>
        <connection-files value="hello.con.xml"/>
        <type-files value="types.typ.xml"/>
    </input>

    <output>
        <output-file value="hello.net.xml"/>
    </output>

    <report>
        <verbose value="true"/>
    </report>

</configuration>
-->

<net version="0.13" xmlns:xsi="http://www.w3.org/2001/XMLSchema-instance" xsi:noNamespaceSchemaLocation="http://sumo.sf.net/xsd/net_file.xsd">

    <location netOffset="500.00,500.00" convBoundary="0.00,0.00,1000.00,1000.00" origBoundary="-500.00,-500.00,500.00,500.00" projParameter="!"/>

    <edge id=":0_0_0" function="internal">
        <lane id=":0_0_0_0" index="0" speed="13.89" length="0.10" shape="504.95,495.00 504.95,495.00"/>
    </edge>
    <edge id=":0_0_1" function="internal">
        <lane id=":0_0_1_0" index="0" speed="13.89" length="0.10" shape="501.65,495.00 501.65,495.00"/>
    </edge>
    <edge id=":0_1_0" function="internal">
        <lane id=":0_1_0_0" index="0" speed="13.89" length="0.10" shape="495.05,505.00 495.05,505.00"/>
    </edge>
    <edge id=":0_1_1" function="internal">
        <lane id=":0_1_1_0" index="0" speed="13.89" length="0.10" shape="498.35,505.00 498.35,505.00"/>
    </edge>
    <edge id=":1_0_0" function="internal">
        <lane id=":1_0_0_0" index="0" speed="13.89" length="0.10" shape="505.00,504.95 505.00,504.95"/>
    </edge>
    <edge id=":1_0_1" function="internal">
        <lane id=":1_0_1_0" index="0" speed="13.89" length="0.10" shape="505.00,501.65 505.00,501.65"/>
    </edge>
    <edge id=":1_1_0" function="internal">
        <lane id=":1_1_0_0" index="0" speed="13.89" length="4.82" shape="498.35,0.00 499.18,-1.24 500.00,-1.65 500.82,-1.24 501.65,0.00"/>
    </edge>
    <edge id=":1_10_0" function="internal">
        <lane id=":1_10_0_0" index="0" speed="13.89" length="0.10" shape="495.00,495.05 495.00,495.05"/>
    </edge>
    <edge id=":1_10_1" function="internal">
        <lane id=":1_10_1_0" index="0" speed="13.89" length="0.10" shape="495.00,498.35 495.00,498.35"/>
    </edge>
    <edge id=":2_1_0" function="internal">
        <lane id=":2_1_0_0" index="0" speed="13.89" length="4.82" shape="501.65,1000.00 500.82,1001.24 500.00,1001.65 499.18,1001.24 498.35,1000.00"/>
    </edge>
    <edge id=":3_1_0" function="internal">
        <lane id=":3_1_0_0" index="0" speed="13.89" length="4.82" shape="1000.00,498.35 1001.24,499.18 1001.65,500.00 1001.24,500.82 1000.00,501.65"/>
    </edge>
    <edge id=":4_1_0" function="internal">
        <lane id=":4_1_0_0" index="0" speed="13.89" length="4.82" shape="0.00,501.65 -1.24,500.82 -1.65,500.00 -1.24,499.18 0.00,498.35"/>
    </edge>

    <edge id="est1" from="3_1" to="1_0" priority="3" type="a">
        <lane id="est1_0" index="0" speed="13.89" length="495.00" shape="1000.00,504.95 505.00,504.95"/>
        <lane id="est1_1" index="1" speed="13.89" length="495.00" shape="1000.00,501.65 505.00,501.65"/>
    </edge>
    <edge id="est2" from="1_0" to="4_1" priority="3" type="a">
        <lane id="est2_0" index="0" speed="13.89" length="505.00" shape="505.00,504.95 0.00,504.95"/>
        <lane id="est2_1" index="1" speed="13.89" length="505.00" shape="505.00,501.65 0.00,501.65"/>
    </edge>
    <edge id="north1" from="2_1" to="0_1" priority="3" type="a">
        <lane id="north1_0" index="0" speed="13.89" length="495.00" shape="495.05,1000.00 495.05,505.00"/>
        <lane id="north1_1" index="1" speed="13.89" length="495.00" shape="498.35,1000.00 498.35,505.00"/>
    </edge>
    <edge id="north2" from="0_1" to="1_1" priority="3" type="a">
        <lane id="north2_0" index="0" speed="13.89" length="505.00" shape="495.05,505.00 495.05,0.00"/>
        <lane id="north2_1" index="1" speed="13.89" length="505.00" shape="498.35,505.00 498.35,0.00"/>
    </edge>
    <edge id="ouest1" from="4_1" to="1_10" priority="3" type="a">
        <lane id="ouest1_0" index="0" speed="13.89" length="495.00" shape="0.00,495.05 495.00,495.05"/>
        <lane id="ouest1_1" index="1" speed="13.89" length="495.00" shape="0.00,498.35 495.00,498.35"/>
    </edge>
    <edge id="ouest2" from="1_10" to="3_1" priority="3" type="a">
        <lane id="ouest2_0" index="0" speed="13.89" length="505.00" shape="495.00,495.05 1000.00,495.05"/>
        <lane id="ouest2_1" index="1" speed="13.89" length="505.00" shape="495.00,498.35 1000.00,498.35"/>
    </edge>
    <edge id="south1" from="1_1" to="0_0" priority="3" type="a">
        <lane id="south1_0" index="0" speed="13.89" length="495.00" shape="504.95,0.00 504.95,495.00"/>
        <lane id="south1_1" index="1" speed="13.89" length="495.00" shape="501.65,0.00 501.65,495.00"/>
    </edge>
    <edge id="south2" from="0_0" to="2_1" priority="3" type="a">
        <lane id="south2_0" index="0" speed="13.89" length="505.00" shape="504.95,495.00 504.95,1000.00"/>
        <lane id="south2_1" index="1" speed="13.89" length="505.00" shape="501.65,495.00 501.65,1000.00"/>
    </edge>

    <tlLogic id="0_0" type="static" programID="0" offset="0">
        <phase duration="31" state="GG"/>
        <phase duration="4" state="yy"/>
    </tlLogic>
    <tlLogic id="0_1" type="static" programID="0" offset="0">
        <phase duration="31" state="GG"/>
        <phase duration="4" state="yy"/>
    </tlLogic>
    <tlLogic id="1_0" type="static" programID="0" offset="0">
        <phase duration="31" state="GG"/>
        <phase duration="4" state="yy"/>
    </tlLogic>
    <tlLogic id="1_10" type="static" programID="0" offset="0">
        <phase duration="31" state="GG"/>
        <phase duration="4" state="yy"/>
    </tlLogic>

    <junction id="0_0" type="traffic_light" x="500.00" y="495.00" incLanes="south1_0 south1_1" intLanes=":0_0_0_0 :0_0_1_0" shape="500.05,495.00 506.55,495.00 500.05,495.00">
        <request index="0" response="00" foes="00" cont="0"/>
        <request index="1" response="00" foes="00" cont="0"/>
    </junction>
    <junction id="0_1" type="traffic_light" x="500.00" y="505.00" incLanes="north1_0 north1_1" intLanes=":0_1_0_0 :0_1_1_0" shape="493.45,505.00 499.95,505.00 493.45,505.00">
        <request index="0" response="00" foes="00" cont="0"/>
        <request index="1" response="00" foes="00" cont="0"/>
    </junction>
    <junction id="1_0" type="traffic_light" x="505.00" y="500.00" incLanes="est1_0 est1_1" intLanes=":1_0_0_0 :1_0_1_0" shape="505.00,506.55 505.00,500.05 505.00,506.55">
        <request index="0" response="00" foes="00" cont="0"/>
        <request index="1" response="00" foes="00" cont="0"/>
    </junction>
    <junction id="1_1" type="priority" x="500.00" y="0.00" incLanes="north2_0 north2_1" intLanes=":1_1_0_0" shape="500.05,-0.00 506.55,-0.00 493.45,0.00 499.95,0.00">
        <request index="0" response="0" foes="0" cont="0"/>
    </junction>
    <junction id="1_10" type="traffic_light" x="495.00" y="500.00" incLanes="ouest1_0 ouest1_1" intLanes=":1_10_0_0 :1_10_1_0" shape="495.00,499.95 495.00,493.45 495.00,499.95">
        <request index="0" response="00" foes="00" cont="0"/>
        <request index="1" response="00" foes="00" cont="0"/>
    </junction>
    <junction id="2_1" type="priority" x="500.00" y="1000.00" incLanes="south2_0 south2_1" intLanes=":2_1_0_0" shape="499.95,1000.00 493.45,1000.00 506.55,1000.00 500.05,1000.00">
        <request index="0" response="0" foes="0" cont="0"/>
    </junction>
    <junction id="3_1" type="priority" x="1000.00" y="500.00" incLanes="ouest2_0 ouest2_1" intLanes=":3_1_0_0" shape="1000.00,500.05 1000.00,506.55 1000.00,493.45 1000.00,499.95">
        <request index="0" response="0" foes="0" cont="0"/>
    </junction>
    <junction id="4_1" type="priority" x="0.00" y="500.00" incLanes="est2_0 est2_1" intLanes=":4_1_0_0" shape="-0.00,499.95 -0.00,493.45 0.00,506.55 0.00,500.05">
        <request index="0" response="0" foes="0" cont="0"/>
    </junction>

    <connection from="est1" to="est2" fromLane="0" toLane="0" via=":1_0_0_0" tl="1_0" linkIndex="0" dir="s" state="o"/>
    <connection from="est1" to="est2" fromLane="1" toLane="1" via=":1_0_1_0" tl="1_0" linkIndex="1" dir="s" state="o"/>
    <connection from="est2" to="ouest1" fromLane="1" toLane="1" via=":4_1_0_0" dir="t" state="M"/>
    <connection from="north1" to="north2" fromLane="0" toLane="0" via=":0_1_0_0" tl="0_1" linkIndex="0" dir="s" state="o"/>
    <connection from="north1" to="north2" fromLane="1" toLane="1" via=":0_1_1_0" tl="0_1" linkIndex="1" dir="s" state="o"/>
    <connection from="north2" to="south1" fromLane="1" toLane="1" via=":1_1_0_0" dir="t" state="M"/>
    <connection from="ouest1" to="ouest2" fromLane="0" toLane="0" via=":1_10_0_0" tl="1_10" linkIndex="0" dir="s" state="o"/>
    <connection from="ouest1" to="ouest2" fromLane="1" toLane="1" via=":1_10_1_0" tl="1_10" linkIndex="1" dir="s" state="o"/>
    <connection from="ouest2" to="est1" fromLane="1" toLane="1" via=":3_1_0_0" dir="t" state="M"/>
    <connection from="south1" to="south2" fromLane="0" toLane="0" via=":0_0_0_0" tl="0_0" linkIndex="0" dir="s" state="o"/>
    <connection from="south1" to="south2" fromLane="1" toLane="1" via=":0_0_1_0" tl="0_0" linkIndex="1" dir="s" state="o"/>
    <connection from="south2" to="north1" fromLane="1" toLane="1" via=":2_1_0_0" dir="t" state="M"/>

    <connection from=":0_0_0" to="south2" fromLane="0" toLane="0" dir="s" state="M"/>
    <connection from=":0_0_1" to="south2" fromLane="0" toLane="1" dir="s" state="M"/>
    <connection from=":0_1_0" to="north2" fromLane="0" toLane="0" dir="s" state="M"/>
    <connection from=":0_1_1" to="north2" fromLane="0" toLane="1" dir="s" state="M"/>
    <connection from=":1_0_0" to="est2" fromLane="0" toLane="0" dir="s" state="M"/>
    <connection from=":1_0_1" to="est2" fromLane="0" toLane="1" dir="s" state="M"/>
    <connection from=":1_1_0" to="south1" fromLane="0" toLane="1" dir="s" state="M"/>
    <connection from=":1_10_0" to="ouest2" fromLane="0" toLane="0" dir="s" state="M"/>
    <connection from=":1_10_1" to="ouest2" fromLane="0" toLane="1" dir="s" state="M"/>
    <connection from=":2_1_0" to="north1" fromLane="0" toLane="1" dir="s" state="M"/>
    <connection from=":3_1_0" to="est1" fromLane="0" toLane="1" dir="s" state="M"/>
    <connection from=":4_1_0" to="ouest1" fromLane="0" toLane="1" dir="s" state="M"/>

</net>
