<?xml version="1.0" encoding="UTF-8"?>
<routes xmlns:xsi="http://www.w3.org/2001/XMLSchema-instance" xsi:noNamespaceSchemaLocation="http://sumo.sf.net/xsd/routes_file.xsd">
  <vType accel="1.0" decel="5.0" id="Car" length="5.0" minGap="2.0" maxSpeed="50.0" sigma="0" />

  <route id="route0_0" edges="south1 south2" />
  <route id="route0_1" edges="north1 north2" />
  <route id="route1_0" edges="est1 est2" />
  <route id="route1_1" edges="ouest1 ouest2" />
  

	<flow id="type1" color="1,1,0" route="route0_0"  begin="0" end= "7200" vehsPerHour="1000" type="Car"/>
	<flow id="type2" color="1,1,0" route="route0_1"  begin="0" end= "7200" vehsPerHour="1000" type="Car"/>
	<flow id="type3" color="1,1,0" route="route1_0"  begin="0" end= "7200" vehsPerHour="1000" type="Car"/>
	<flow id="type4" color="1,1,0" route="route1_1"  begin="0" end= "7200" vehsPerHour="1000" type="Car"/>
  
</routes>
