<types>
   <type id="a" priority="3" numLanes="2" speed="13.889"/>
  
</types>